<?xml version="1.0" encoding="UTF-8"?>

<!-- generated on 2026-01-09 13:26:50 by Eclipse SUMO netedit Version 1.19.0
<configuration xmlns:xsi="http://www.w3.org/2001/XMLSchema-instance" xsi:noNamespaceSchemaLocation="http://sumo.dlr.de/xsd/neteditConfiguration.xsd">

    <input>
        <sumocfg-file value="/home/luca/Dropbox (Politecnico di Torino Staff)/DIDATTICA/2026_ICT4SM_teachers/Exercises/Exercise 4 - SUMO_simulator/sumo_exercise/new/example_Flow.sumocfg"/>
        <route-files value="/home/luca/Dropbox (Politecnico di Torino Staff)/DIDATTICA/2026_ICT4SM_teachers/Exercises/Exercise 4 - SUMO_simulator/sumo_exercise/new/exampleFlow.rou.xml"/>
        <sumo-net-file value="/home/luca/Dropbox (Politecnico di Torino Staff)/DIDATTICA/2026_ICT4SM_teachers/Exercises/Exercise 4 - SUMO_simulator/sumo_exercise/new/example.net.xml"/>
    </input>

    <output>
        <output-file value="/home/luca/Dropbox (Politecnico di Torino Staff)/DIDATTICA/2026_ICT4SM_teachers/Exercises/Exercise 4 - SUMO_simulator/sumo_exercise/new/example.net.xml"/>
    </output>

    <processing>
        <geometry.min-radius.fix.railways value="false"/>
        <geometry.max-grade.fix value="false"/>
        <offset.disable-normalization value="true"/>
        <lefthand value="0"/>
    </processing>

    <junctions>
        <no-turnarounds value="true"/>
        <junctions.corner-detail value="5"/>
        <junctions.limit-turn-speed value="5.50"/>
        <rectangular-lane-cut value="0"/>
    </junctions>

    <pedestrian>
        <walkingareas value="0"/>
    </pedestrian>

</configuration>
-->

<net version="1.16" junctionCornerDetail="5" limitTurnSpeed="5.50" xmlns:xsi="http://www.w3.org/2001/XMLSchema-instance" xsi:noNamespaceSchemaLocation="http://sumo.dlr.de/xsd/net_file.xsd">

    <location netOffset="0.00,0.00" convBoundary="40.38,6.36,137.25,108.27" origBoundary="-10000000000.00,-10000000000.00,10000000000.00,10000000000.00" projParameter="!"/>

    <edge id=":J5_0" function="internal">
        <lane id=":J5_0_0" index="0" speed="6.79" length="9.39" shape="91.03,72.74 89.04,71.30 86.98,70.84 84.86,71.35 82.67,72.84"/>
    </edge>
    <edge id=":J5_1" function="internal">
        <lane id=":J5_1_0" index="0" speed="13.89" length="14.46" shape="91.03,72.74 80.70,62.62"/>
    </edge>
    <edge id=":J5_2" function="internal">
        <lane id=":J5_2_0" index="0" speed="8.29" length="3.96" shape="91.03,72.74 88.74,69.72 88.70,69.55"/>
    </edge>
    <edge id=":J5_12" function="internal">
        <lane id=":J5_12_0" index="0" speed="8.29" length="10.39" shape="88.70,69.55 87.93,66.58 88.58,63.32 90.70,59.93"/>
    </edge>
    <edge id=":J5_3" function="internal">
        <lane id=":J5_3_0" index="0" speed="6.85" length="9.49" shape="93.17,61.98 91.74,64.24 91.28,66.41 91.79,68.48 93.27,70.45"/>
    </edge>
    <edge id=":J5_4" function="internal">
        <lane id=":J5_4_0" index="0" speed="13.89" length="15.12" shape="93.17,61.98 90.70,64.83 88.12,67.61 85.44,70.28 82.67,72.84"/>
    </edge>
    <edge id=":J5_5" function="internal">
        <lane id=":J5_5_0" index="0" speed="7.86" length="14.52" shape="93.17,61.98 90.18,64.68 87.11,65.68 83.95,65.00 80.70,62.62"/>
    </edge>
    <edge id=":J5_6" function="internal">
        <lane id=":J5_6_0" index="0" speed="6.33" length="9.04" shape="82.94,60.33 84.96,61.81 86.93,62.24 88.84,61.62 90.70,59.93"/>
    </edge>
    <edge id=":J5_7" function="internal">
        <lane id=":J5_7_0" index="0" speed="13.89" length="14.46" shape="82.94,60.33 93.27,70.45"/>
    </edge>
    <edge id=":J5_8" function="internal">
        <lane id=":J5_8_0" index="0" speed="7.89" length="4.14" shape="82.94,60.33 85.39,63.53 85.41,63.65"/>
    </edge>
    <edge id=":J5_13" function="internal">
        <lane id=":J5_13_0" index="0" speed="7.89" length="10.36" shape="85.41,63.65 86.16,66.68 85.25,69.78 82.67,72.84"/>
    </edge>
    <edge id=":J5_9" function="internal">
        <lane id=":J5_9_0" index="0" speed="6.37" length="9.08" shape="80.54,70.45 82.16,68.53 82.72,66.59 82.23,64.62 80.70,62.62"/>
    </edge>
    <edge id=":J5_10" function="internal">
        <lane id=":J5_10_0" index="0" speed="13.89" length="14.63" shape="80.54,70.45 83.26,67.94 85.83,65.39 88.30,62.73 90.70,59.93"/>
    </edge>
    <edge id=":J5_11" function="internal">
        <lane id=":J5_11_0" index="0" speed="8.24" length="14.30" shape="80.54,70.45 83.84,68.23 87.06,67.49 90.20,68.23 93.27,70.45"/>
    </edge>

    <edge id="-E3" from="J5" to="J4" priority="-1">
        <lane id="-E3_0" index="0" speed="13.89" length="55.15" shape="82.67,72.84 41.44,109.47"/>
    </edge>
    <edge id="-E4" from="J6" to="J5" priority="-1">
        <lane id="-E4_0" index="0" speed="13.89" length="56.36" shape="42.71,20.87 82.94,60.33"/>
    </edge>
    <edge id="-E5" from="J5" to="J8" priority="-1">
        <lane id="-E5_0" index="0" speed="13.89" length="70.95" shape="90.70,59.93 136.02,5.34"/>
    </edge>
    <edge id="-E6" from="J9" to="J5" priority="-1">
        <lane id="-E6_0" index="0" speed="13.89" length="52.27" shape="128.39,109.30 91.03,72.74"/>
    </edge>
    <edge id="E3" from="J4" to="J5" priority="-1">
        <lane id="E3_0" index="0" speed="13.89" length="55.15" shape="39.32,107.07 80.54,70.45"/>
    </edge>
    <edge id="E4" from="J5" to="J6" priority="-1">
        <lane id="E4_0" index="0" speed="13.89" length="56.36" shape="80.70,62.62 40.47,23.15"/>
    </edge>
    <edge id="E5" from="J8" to="J5" priority="-1">
        <lane id="E5_0" index="0" speed="13.89" length="70.95" shape="138.48,7.38 93.17,61.98"/>
    </edge>
    <edge id="E6" from="J5" to="J9" priority="-1">
        <lane id="E6_0" index="0" speed="13.89" length="52.27" shape="93.27,70.45 130.63,107.02"/>
    </edge>

    <junction id="J4" type="dead_end" x="40.38" y="108.27" incLanes="-E3_0" intLanes="" shape="40.38,108.27 42.51,110.66 40.38,108.27"/>
    <junction id="J5" type="priority" x="87.16" y="66.71" incLanes="-E6_0 E5_0 -E4_0 E3_0" intLanes=":J5_0_0 :J5_1_0 :J5_12_0 :J5_3_0 :J5_4_0 :J5_5_0 :J5_6_0 :J5_7_0 :J5_13_0 :J5_9_0 :J5_10_0 :J5_11_0" shape="89.91,73.88 94.39,69.31 93.11,67.35 92.95,66.32 93.11,65.25 93.59,64.14 94.40,63.00 89.47,58.91 87.74,60.31 86.84,60.52 85.93,60.40 85.01,59.96 84.06,59.19 79.58,63.76 80.86,65.63 81.00,66.55 80.82,67.46 80.32,68.36 79.48,69.25 83.73,74.04 85.90,72.71 86.94,72.52 87.96,72.66 88.95,73.11">
        <request index="0"  response="000000000000" foes="000100010000" cont="0"/>
        <request index="1"  response="000000000000" foes="111100110000" cont="0"/>
        <request index="2"  response="000011000000" foes="110111110000" cont="1"/>
        <request index="3"  response="000010000000" foes="100010000000" cont="0"/>
        <request index="4"  response="000110000111" foes="100110000111" cont="0"/>
        <request index="5"  response="011110000110" foes="111110000110" cont="0"/>
        <request index="6"  response="000000000000" foes="010000000100" cont="0"/>
        <request index="7"  response="000000000000" foes="110000111100" cont="0"/>
        <request index="8"  response="000000000111" foes="110000110111" cont="1"/>
        <request index="9"  response="000000000010" foes="000000100010" cont="0"/>
        <request index="10" response="000111000110" foes="000111100110" cont="0"/>
        <request index="11" response="000110111110" foes="000110111110" cont="0"/>
    </junction>
    <junction id="J6" type="dead_end" x="41.59" y="22.01" incLanes="E4_0" intLanes="" shape="41.59,22.01 39.35,24.29 41.59,22.01"/>
    <junction id="J8" type="dead_end" x="137.25" y="6.36" incLanes="-E5_0" intLanes="" shape="137.25,6.36 134.79,4.32 137.25,6.36"/>
    <junction id="J9" type="dead_end" x="129.51" y="108.16" incLanes="E6_0" intLanes="" shape="129.51,108.16 131.75,105.87 129.51,108.16"/>

    <junction id=":J5_12_0" type="internal" x="88.70" y="69.55" incLanes=":J5_2_0 -E4_0" intLanes=":J5_4_0 :J5_5_0 :J5_6_0 :J5_7_0 :J5_10_0 :J5_11_0"/>
    <junction id=":J5_13_0" type="internal" x="85.41" y="63.65" incLanes=":J5_8_0 -E6_0" intLanes=":J5_0_0 :J5_1_0 :J5_4_0 :J5_5_0 :J5_10_0 :J5_11_0"/>

    <connection from="-E4" to="-E5" fromLane="0" toLane="0" via=":J5_6_0" dir="r" state="M"/>
    <connection from="-E4" to="E6" fromLane="0" toLane="0" via=":J5_7_0" dir="s" state="M"/>
    <connection from="-E4" to="-E3" fromLane="0" toLane="0" via=":J5_8_0" dir="l" state="m"/>
    <connection from="-E6" to="-E3" fromLane="0" toLane="0" via=":J5_0_0" dir="r" state="M"/>
    <connection from="-E6" to="E4" fromLane="0" toLane="0" via=":J5_1_0" dir="s" state="M"/>
    <connection from="-E6" to="-E5" fromLane="0" toLane="0" via=":J5_2_0" dir="l" state="m"/>
    <connection from="E3" to="E4" fromLane="0" toLane="0" via=":J5_9_0" dir="r" state="m"/>
    <connection from="E3" to="-E5" fromLane="0" toLane="0" via=":J5_10_0" dir="s" state="m"/>
    <connection from="E3" to="E6" fromLane="0" toLane="0" via=":J5_11_0" dir="l" state="m"/>
    <connection from="E5" to="E6" fromLane="0" toLane="0" via=":J5_3_0" dir="r" state="m"/>
    <connection from="E5" to="-E3" fromLane="0" toLane="0" via=":J5_4_0" dir="s" state="m"/>
    <connection from="E5" to="E4" fromLane="0" toLane="0" via=":J5_5_0" dir="l" state="m"/>

    <connection from=":J5_0" to="-E3" fromLane="0" toLane="0" dir="r" state="M"/>
    <connection from=":J5_1" to="E4" fromLane="0" toLane="0" dir="s" state="M"/>
    <connection from=":J5_2" to="-E5" fromLane="0" toLane="0" via=":J5_12_0" dir="l" state="m"/>
    <connection from=":J5_12" to="-E5" fromLane="0" toLane="0" dir="l" state="M"/>
    <connection from=":J5_3" to="E6" fromLane="0" toLane="0" dir="r" state="M"/>
    <connection from=":J5_4" to="-E3" fromLane="0" toLane="0" dir="s" state="M"/>
    <connection from=":J5_5" to="E4" fromLane="0" toLane="0" dir="l" state="M"/>
    <connection from=":J5_6" to="-E5" fromLane="0" toLane="0" dir="r" state="M"/>
    <connection from=":J5_7" to="E6" fromLane="0" toLane="0" dir="s" state="M"/>
    <connection from=":J5_8" to="-E3" fromLane="0" toLane="0" via=":J5_13_0" dir="l" state="m"/>
    <connection from=":J5_13" to="-E3" fromLane="0" toLane="0" dir="l" state="M"/>
    <connection from=":J5_9" to="E4" fromLane="0" toLane="0" dir="r" state="M"/>
    <connection from=":J5_10" to="-E5" fromLane="0" toLane="0" dir="s" state="M"/>
    <connection from=":J5_11" to="E6" fromLane="0" toLane="0" dir="l" state="M"/>

</net>
