<?xml version="1.0" encoding="UTF-8"?>

<!-- generated on 2026-01-09T17:25:55.548458+01:00 by Eclipse SUMO netedit 1.25.0
<neteditConfiguration xmlns:xsi="http://www.w3.org/2001/XMLSchema-instance" xsi:noNamespaceSchemaLocation="http://sumo.dlr.de/xsd/neteditConfiguration.xsd">

    <input>
        <sumo-net-file value="/home/cavallinux/Backup/Magistrale/ICT4SmartMobility/Exercises/Ex4/myIntersection.net.xml"/>
    </input>

    <output>
        <output-file value="/home/cavallinux/Backup/Magistrale/ICT4SmartMobility/Exercises/Ex4/myIntersection.net.xml"/>
    </output>

    <processing>
        <offset.disable-normalization value="true"/>
    </processing>

    <junctions>
        <no-turnarounds value="true"/>
    </junctions>

    <netedit>
        <new-network value="false"/>
    </netedit>

</neteditConfiguration>
-->

<net version="1.20" junctionCornerDetail="5" limitTurnSpeed="5.50" xmlns:xsi="http://www.w3.org/2001/XMLSchema-instance" xsi:noNamespaceSchemaLocation="http://sumo.dlr.de/xsd/net_file.xsd">

    <location netOffset="0.00,0.00" convBoundary="-364.42,154.92,265.55,600.94" origBoundary="10000000000.00,10000000000.00,-10000000000.00,-10000000000.00" projParameter="!"/>

    <edge id=":J28_0" function="internal">
        <lane id=":J28_0_0" index="0" speed="13.89" length="20.77" shape="-50.77,605.38 -71.54,605.38"/>
        <lane id=":J28_0_1" index="1" speed="13.89" length="20.77" shape="-50.77,602.18 -71.55,602.18"/>
    </edge>
    <edge id=":J28_2" function="internal">
        <lane id=":J28_2_0" index="0" speed="9.26" length="4.98" shape="-50.77,602.18 -55.70,601.47"/>
    </edge>
    <edge id=":J28_8" function="internal">
        <lane id=":J28_8_0" index="0" speed="9.26" length="14.36" shape="-55.70,601.47 -56.02,601.42 -59.76,599.17 -62.01,595.42 -62.76,590.18"/>
    </edge>
    <edge id=":J28_3" function="internal">
        <lane id=":J28_3_0" index="0" speed="6.51" length="9.03" shape="-56.36,590.18 -56.01,592.63 -54.96,594.38 -53.21,595.43 -50.76,595.78"/>
    </edge>
    <edge id=":J28_4" function="internal">
        <lane id=":J28_4_0" index="0" speed="9.26" length="19.34" shape="-59.56,590.18 -60.31,595.42 -62.56,599.17 -66.30,601.43 -71.55,602.18"/>
    </edge>
    <edge id=":J28_5" function="internal">
        <lane id=":J28_5_0" index="0" speed="6.51" length="9.03" shape="-71.55,595.78 -69.11,595.43 -67.36,594.38 -66.31,592.63 -65.96,590.18"/>
    </edge>
    <edge id=":J28_6" function="internal">
        <lane id=":J28_6_0" index="0" speed="13.89" length="20.79" shape="-71.55,595.78 -50.76,595.78"/>
        <lane id=":J28_6_1" index="1" speed="13.89" length="20.79" shape="-71.55,598.98 -50.77,598.98"/>
    </edge>
    <edge id=":J29_0" function="internal">
        <lane id=":J29_0_0" index="0" speed="6.50" length="9.03" shape="-65.96,390.26 -66.31,387.81 -67.36,386.06 -69.11,385.01 -71.57,384.67"/>
    </edge>
    <edge id=":J29_1" function="internal">
        <lane id=":J29_1_0" index="0" speed="13.89" length="20.81" shape="-65.96,390.26 -65.96,369.45"/>
        <lane id=":J29_1_1" index="1" speed="13.89" length="20.81" shape="-62.76,390.26 -62.76,369.45"/>
    </edge>
    <edge id=":J29_3" function="internal">
        <lane id=":J29_3_0" index="0" speed="9.26" length="5.02" shape="-62.76,390.26 -62.05,385.29"/>
    </edge>
    <edge id=":J29_16" function="internal">
        <lane id=":J29_16_0" index="0" speed="9.26" length="14.36" shape="-62.05,385.29 -62.01,385.00 -59.76,381.24 -56.00,378.99 -50.74,378.26"/>
    </edge>
    <edge id=":J29_4" function="internal">
        <lane id=":J29_4_0" index="0" speed="6.50" length="9.04" shape="-50.76,384.66 -53.21,385.00 -54.96,386.05 -56.01,387.80 -56.36,390.26"/>
    </edge>
    <edge id=":J29_5" function="internal">
        <lane id=":J29_5_0" index="0" speed="13.89" length="20.82" shape="-50.76,384.66 -71.57,384.67"/>
        <lane id=":J29_5_1" index="1" speed="13.89" length="20.82" shape="-50.75,381.46 -71.58,381.47"/>
    </edge>
    <edge id=":J29_7" function="internal">
        <lane id=":J29_7_0" index="0" speed="9.27" length="19.36" shape="-50.75,381.46 -56.00,380.69 -59.76,378.44 -62.01,374.69 -62.76,369.45"/>
    </edge>
    <edge id=":J29_8" function="internal">
        <lane id=":J29_8_0" index="0" speed="6.52" length="9.06" shape="-56.36,369.45 -56.01,371.89 -54.95,373.65 -53.19,374.70 -50.73,375.06"/>
    </edge>
    <edge id=":J29_9" function="internal">
        <lane id=":J29_9_0" index="0" speed="13.89" length="20.81" shape="-56.36,369.45 -56.36,390.26"/>
        <lane id=":J29_9_1" index="1" speed="13.89" length="20.81" shape="-59.56,369.45 -59.56,390.26"/>
    </edge>
    <edge id=":J29_11" function="internal">
        <lane id=":J29_11_0" index="0" speed="9.28" length="5.00" shape="-59.56,369.45 -60.27,374.39"/>
    </edge>
    <edge id=":J29_17" function="internal">
        <lane id=":J29_17_0" index="0" speed="9.28" length="14.37" shape="-60.27,374.39 -60.31,374.69 -62.57,378.44 -66.32,380.70 -71.58,381.47"/>
    </edge>
    <edge id=":J29_12" function="internal">
        <lane id=":J29_12_0" index="0" speed="6.53" length="9.08" shape="-71.61,375.07 -69.14,374.71 -67.37,373.65 -66.31,371.90 -65.96,369.45"/>
    </edge>
    <edge id=":J29_13" function="internal">
        <lane id=":J29_13_0" index="0" speed="13.89" length="20.86" shape="-71.61,375.07 -50.73,375.06"/>
        <lane id=":J29_13_1" index="1" speed="13.89" length="20.86" shape="-71.59,378.27 -50.74,378.26"/>
    </edge>
    <edge id=":J29_15" function="internal">
        <lane id=":J29_15_0" index="0" speed="9.25" length="19.38" shape="-71.59,378.27 -66.33,379.00 -62.57,381.24 -60.31,385.00 -59.56,390.26"/>
    </edge>
    <edge id=":J30_0" function="internal">
        <lane id=":J30_0_0" index="0" speed="13.89" length="20.82" shape="267.59,370.36 267.30,391.18"/>
        <lane id=":J30_0_1" index="1" speed="13.89" length="20.82" shape="264.39,370.32 264.10,391.14"/>
    </edge>
    <edge id=":J30_2" function="internal">
        <lane id=":J30_2_0" index="0" speed="9.30" length="5.00" shape="264.39,370.32 263.61,375.26"/>
    </edge>
    <edge id=":J30_8" function="internal">
        <lane id=":J30_8_0" index="0" speed="9.30" length="14.39" shape="263.61,375.26 263.57,375.53 261.26,379.25 257.46,381.47 252.17,382.20"/>
    </edge>
    <edge id=":J30_3" function="internal">
        <lane id=":J30_3_0" index="0" speed="6.57" length="9.15" shape="252.19,375.80 254.70,375.46 256.51,374.42 257.60,372.68 257.99,370.24"/>
    </edge>
    <edge id=":J30_4" function="internal">
        <lane id=":J30_4_0" index="0" speed="9.24" length="19.45" shape="252.18,379.00 257.47,379.77 261.21,382.05 263.42,385.84 264.10,391.14"/>
    </edge>
    <edge id=":J30_5" function="internal">
        <lane id=":J30_5_0" index="0" speed="6.48" length="9.03" shape="257.70,391.04 257.39,388.58 256.36,386.82 254.62,385.76 252.17,385.40"/>
    </edge>
    <edge id=":J30_6" function="internal">
        <lane id=":J30_6_0" index="0" speed="13.89" length="20.81" shape="257.70,391.04 257.99,370.24"/>
        <lane id=":J30_6_1" index="1" speed="13.89" length="20.81" shape="260.90,391.09 261.19,370.28"/>
    </edge>
    <edge id=":J31_0" function="internal">
        <lane id=":J31_0_0" index="0" speed="6.50" length="9.03" shape="-65.96,169.52 -66.31,167.07 -67.36,165.32 -69.11,164.28 -71.57,163.94"/>
    </edge>
    <edge id=":J31_1" function="internal">
        <lane id=":J31_1_0" index="0" speed="9.30" length="19.35" shape="-62.76,169.52 -62.02,164.26 -59.79,160.48 -56.07,158.18 -50.86,157.36"/>
    </edge>
    <edge id=":J31_2" function="internal">
        <lane id=":J31_2_0" index="0" speed="6.57" length="9.12" shape="-50.78,163.76 -53.22,164.14 -54.97,165.23 -56.01,167.03 -56.36,169.52"/>
    </edge>
    <edge id=":J31_3" function="internal">
        <lane id=":J31_3_0" index="0" speed="13.89" length="20.78" shape="-50.78,163.76 -71.57,163.94"/>
        <lane id=":J31_3_1" index="1" speed="13.89" length="20.78" shape="-50.82,160.56 -71.58,160.74"/>
    </edge>
    <edge id=":J31_5" function="internal">
        <lane id=":J31_5_0" index="0" speed="13.89" length="20.73" shape="-71.62,154.34 -50.90,154.16"/>
        <lane id=":J31_5_1" index="1" speed="13.89" length="20.73" shape="-71.60,157.54 -50.86,157.36"/>
    </edge>
    <edge id=":J31_7" function="internal">
        <lane id=":J31_7_0" index="0" speed="9.25" length="4.88" shape="-71.60,157.54 -66.76,158.21"/>
    </edge>
    <edge id=":J31_8" function="internal">
        <lane id=":J31_8_0" index="0" speed="9.25" length="14.51" shape="-66.76,158.21 -66.33,158.27 -62.57,160.51 -60.31,164.26 -59.56,169.52"/>
    </edge>
    <edge id=":J32_0" function="internal">
        <lane id=":J32_0_0" index="0" speed="6.54" length="9.09" shape="-353.89,385.86 -356.37,386.22 -358.15,387.27 -359.21,389.02 -359.56,391.47"/>
    </edge>
    <edge id=":J32_1" function="internal">
        <lane id=":J32_1_0" index="0" speed="9.25" length="19.41" shape="-353.91,382.66 -359.18,381.92 -362.94,379.68 -365.19,375.92 -365.93,370.65"/>
    </edge>
    <edge id=":J32_2" function="internal">
        <lane id=":J32_2_0" index="0" speed="6.49" length="9.03" shape="-359.53,370.67 -359.19,373.12 -358.14,374.87 -356.39,375.92 -353.93,376.26"/>
    </edge>
    <edge id=":J32_3" function="internal">
        <lane id=":J32_3_0" index="0" speed="13.89" length="20.81" shape="-359.53,370.67 -359.56,391.47"/>
        <lane id=":J32_3_1" index="1" speed="13.89" length="20.81" shape="-362.73,370.66 -362.76,391.47"/>
    </edge>
    <edge id=":J32_5" function="internal">
        <lane id=":J32_5_0" index="0" speed="13.89" length="20.83" shape="-369.16,391.47 -369.13,370.64"/>
        <lane id=":J32_5_1" index="1" speed="13.89" length="20.83" shape="-365.96,391.47 -365.93,370.65"/>
    </edge>
    <edge id=":J32_7" function="internal">
        <lane id=":J32_7_0" index="0" speed="9.28" length="5.03" shape="-365.96,391.47 -365.25,386.49"/>
    </edge>
    <edge id=":J32_8" function="internal">
        <lane id=":J32_8_0" index="0" speed="9.28" length="14.35" shape="-365.25,386.49 -365.21,386.23 -362.95,382.49 -359.19,380.23 -353.92,379.46"/>
    </edge>
    <edge id=":J33_0" function="internal">
        <lane id=":J33_0_0" index="0" speed="8.96" length="17.87" shape="264.21,594.59 263.44,599.41 261.32,602.86 257.84,604.93 253.00,605.62"/>
        <lane id=":J33_0_1" index="1" speed="7.66" length="12.77" shape="261.01,594.54 260.46,597.99 258.94,600.45 256.46,601.92 253.00,602.42"/>
    </edge>
    <edge id=":J33_2" function="internal">
        <lane id=":J33_2_0" index="0" speed="3.90" length="2.55" shape="253.01,596.02 253.70,595.92 254.19,595.62 254.50,595.13 254.61,594.44"/>
        <lane id=":J33_2_1" index="1" speed="6.08" length="7.66" shape="253.00,599.22 255.08,598.92 256.57,598.04 257.48,596.56 257.81,594.49"/>
    </edge>
    <edge id=":J34_0" function="internal">
        <lane id=":J34_0_0" index="0" speed="8.96" length="18.40" shape="258.92,150.20 263.94,150.86 267.50,152.97 269.61,156.53 270.27,161.55"/>
        <lane id=":J34_0_1" index="1" speed="7.65" length="13.14" shape="258.96,153.40 262.55,153.87 265.09,155.38 266.60,157.92 267.07,161.51"/>
    </edge>
    <edge id=":J34_2" function="internal">
        <lane id=":J34_2_0" index="0" speed="3.90" length="2.63" shape="260.67,161.42 260.57,160.71 260.27,160.20 259.76,159.90 259.05,159.80"/>
        <lane id=":J34_2_1" index="1" speed="6.07" length="7.89" shape="263.87,161.46 263.59,159.31 262.68,157.79 261.16,156.88 259.01,156.60"/>
    </edge>
    <edge id=":J35_0" function="internal">
        <lane id=":J35_0_0" index="0" speed="3.90" length="2.57" shape="-357.36,165.40 -358.05,165.50 -358.55,165.80 -358.85,166.30 -358.95,166.99"/>
        <lane id=":J35_0_1" index="1" speed="6.08" length="7.70" shape="-357.37,162.20 -359.46,162.51 -360.95,163.41 -361.84,164.90 -362.15,166.98"/>
    </edge>
    <edge id=":J35_2" function="internal">
        <lane id=":J35_2_0" index="0" speed="8.96" length="17.96" shape="-368.55,166.97 -367.84,162.10 -365.75,158.62 -362.27,156.52 -357.41,155.80"/>
        <lane id=":J35_2_1" index="1" speed="7.66" length="12.83" shape="-365.35,166.97 -364.84,163.50 -363.35,161.01 -360.86,159.51 -357.39,159.00"/>
    </edge>
    <edge id=":J36_0" function="internal">
        <lane id=":J36_0_0" index="0" speed="8.96" length="18.08" shape="-358.00,605.73 -362.91,605.04 -366.42,602.94 -368.52,599.44 -369.22,594.53"/>
        <lane id=":J36_0_1" index="1" speed="7.66" length="12.92" shape="-358.01,602.53 -361.51,602.04 -364.02,600.54 -365.52,598.03 -366.02,594.53"/>
    </edge>
    <edge id=":J36_2" function="internal">
        <lane id=":J36_2_0" index="0" speed="3.90" length="2.58" shape="-359.62,594.53 -359.52,595.23 -359.22,595.73 -358.72,596.03 -358.02,596.13"/>
        <lane id=":J36_2_1" index="1" speed="6.08" length="7.75" shape="-362.82,594.53 -362.52,596.63 -361.62,598.13 -360.12,599.03 -358.01,599.33"/>
    </edge>

    <edge id="-E27" from="J29" to="J28" priority="-1">
        <lane id="-E27_0" index="0" speed="13.89" length="199.92" shape="-56.36,390.26 -56.36,590.18"/>
        <lane id="-E27_1" index="1" speed="13.89" length="199.92" shape="-59.56,390.26 -59.56,590.18"/>
    </edge>
    <edge id="-E28" from="J30" to="J29" priority="-1">
        <lane id="-E28_0" index="0" speed="13.89" length="302.92" shape="252.17,385.40 -50.76,384.66"/>
        <lane id="-E28_1" index="1" speed="13.89" length="302.92" shape="252.17,382.20 -50.75,381.46"/>
    </edge>
    <edge id="-E29" from="J31" to="J29" priority="-1">
        <lane id="-E29_0" index="0" speed="13.89" length="199.92" shape="-56.36,169.52 -56.36,369.45"/>
        <lane id="-E29_1" index="1" speed="13.89" length="199.92" shape="-59.56,169.52 -59.56,369.45"/>
    </edge>
    <edge id="-E30" from="J32" to="J29" priority="-1">
        <lane id="-E30_0" index="0" speed="13.89" length="282.33" shape="-353.93,376.26 -71.61,375.07"/>
        <lane id="-E30_1" index="1" speed="13.89" length="282.33" shape="-353.92,379.46 -71.59,378.27"/>
    </edge>
    <edge id="-E31" from="J33" to="J28" priority="-1">
        <lane id="-E31_0" index="0" speed="13.89" length="303.77" shape="253.00,605.62 -50.77,605.38"/>
        <lane id="-E31_1" index="1" speed="13.89" length="303.77" shape="253.00,602.42 -50.77,602.18"/>
    </edge>
    <edge id="-E32" from="J30" to="J33" priority="-1">
        <lane id="-E32_0" index="0" speed="13.89" length="203.43" shape="267.30,391.18 264.21,594.59"/>
        <lane id="-E32_1" index="1" speed="13.89" length="203.43" shape="264.10,391.14 261.01,594.54"/>
    </edge>
    <edge id="-E33" from="J34" to="J30" priority="-1">
        <lane id="-E33_0" index="0" speed="13.89" length="208.83" shape="270.27,161.55 267.59,370.36"/>
        <lane id="-E33_1" index="1" speed="13.89" length="208.83" shape="267.07,161.51 264.39,370.32"/>
    </edge>
    <edge id="-E34" from="J31" to="J34" priority="-1">
        <lane id="-E34_0" index="0" speed="13.89" length="309.85" shape="-50.90,154.16 258.92,150.20"/>
        <lane id="-E34_1" index="1" speed="13.89" length="309.85" shape="-50.86,157.36 258.96,153.40"/>
    </edge>
    <edge id="-E35" from="J35" to="J31" priority="-1">
        <lane id="-E35_0" index="0" speed="13.89" length="285.79" shape="-357.41,155.80 -71.62,154.34"/>
        <lane id="-E35_1" index="1" speed="13.89" length="285.79" shape="-357.39,159.00 -71.60,157.54"/>
    </edge>
    <edge id="-E36" from="J32" to="J35" priority="-1">
        <lane id="-E36_0" index="0" speed="13.89" length="203.68" shape="-369.13,370.64 -368.55,166.97"/>
        <lane id="-E36_1" index="1" speed="13.89" length="203.68" shape="-365.93,370.65 -365.35,166.97"/>
    </edge>
    <edge id="-E37" from="J36" to="J32" priority="-1">
        <lane id="-E37_0" index="0" speed="13.89" length="203.06" shape="-369.22,594.53 -369.16,391.47"/>
        <lane id="-E37_1" index="1" speed="13.89" length="203.06" shape="-366.02,594.53 -365.96,391.47"/>
    </edge>
    <edge id="-E38" from="J28" to="J36" priority="-1">
        <lane id="-E38_0" index="0" speed="13.89" length="286.46" shape="-71.54,605.38 -358.00,605.73"/>
        <lane id="-E38_1" index="1" speed="13.89" length="286.46" shape="-71.55,602.18 -358.01,602.53"/>
    </edge>
    <edge id="E27" from="J28" to="J29" priority="-1">
        <lane id="E27_0" index="0" speed="13.89" length="199.92" shape="-65.96,590.18 -65.96,390.26"/>
        <lane id="E27_1" index="1" speed="13.89" length="199.92" shape="-62.76,590.18 -62.76,390.26"/>
    </edge>
    <edge id="E28" from="J29" to="J30" priority="-1">
        <lane id="E28_0" index="0" speed="13.89" length="302.92" shape="-50.73,375.06 252.19,375.80"/>
        <lane id="E28_1" index="1" speed="13.89" length="302.92" shape="-50.74,378.26 252.18,379.00"/>
    </edge>
    <edge id="E29" from="J29" to="J31" priority="-1">
        <lane id="E29_0" index="0" speed="13.89" length="199.92" shape="-65.96,369.45 -65.96,169.52"/>
        <lane id="E29_1" index="1" speed="13.89" length="199.92" shape="-62.76,369.45 -62.76,169.52"/>
    </edge>
    <edge id="E30" from="J29" to="J32" priority="-1">
        <lane id="E30_0" index="0" speed="13.89" length="282.33" shape="-71.57,384.67 -353.89,385.86"/>
        <lane id="E30_1" index="1" speed="13.89" length="282.33" shape="-71.58,381.47 -353.91,382.66"/>
    </edge>
    <edge id="E31" from="J28" to="J33" priority="-1">
        <lane id="E31_0" index="0" speed="13.89" length="303.77" shape="-50.76,595.78 253.01,596.02"/>
        <lane id="E31_1" index="1" speed="13.89" length="303.77" shape="-50.77,598.98 253.00,599.22"/>
    </edge>
    <edge id="E32" from="J33" to="J30" priority="-1">
        <lane id="E32_0" index="0" speed="13.89" length="203.43" shape="254.61,594.44 257.70,391.04"/>
        <lane id="E32_1" index="1" speed="13.89" length="203.43" shape="257.81,594.49 260.90,391.09"/>
    </edge>
    <edge id="E33" from="J30" to="J34" priority="-1">
        <lane id="E33_0" index="0" speed="13.89" length="208.83" shape="257.99,370.24 260.67,161.42"/>
        <lane id="E33_1" index="1" speed="13.89" length="208.83" shape="261.19,370.28 263.87,161.46"/>
    </edge>
    <edge id="E34" from="J34" to="J31" priority="-1">
        <lane id="E34_0" index="0" speed="13.89" length="309.85" shape="259.05,159.80 -50.78,163.76"/>
        <lane id="E34_1" index="1" speed="13.89" length="309.85" shape="259.01,156.60 -50.82,160.56"/>
    </edge>
    <edge id="E35" from="J31" to="J35" priority="-1">
        <lane id="E35_0" index="0" speed="13.89" length="285.79" shape="-71.57,163.94 -357.36,165.40"/>
        <lane id="E35_1" index="1" speed="13.89" length="285.79" shape="-71.58,160.74 -357.37,162.20"/>
    </edge>
    <edge id="E36" from="J35" to="J32" priority="-1">
        <lane id="E36_0" index="0" speed="13.89" length="203.68" shape="-358.95,166.99 -359.53,370.67"/>
        <lane id="E36_1" index="1" speed="13.89" length="203.68" shape="-362.15,166.98 -362.73,370.66"/>
    </edge>
    <edge id="E37" from="J32" to="J36" priority="-1">
        <lane id="E37_0" index="0" speed="13.89" length="203.06" shape="-359.56,391.47 -359.62,594.53"/>
        <lane id="E37_1" index="1" speed="13.89" length="203.06" shape="-362.76,391.47 -362.82,594.53"/>
    </edge>
    <edge id="E38" from="J36" to="J28" priority="-1">
        <lane id="E38_0" index="0" speed="13.89" length="286.46" shape="-358.02,596.13 -71.55,595.78"/>
        <lane id="E38_1" index="1" speed="13.89" length="286.46" shape="-358.01,599.33 -71.55,598.98"/>
    </edge>

    <junction id="J28" type="priority" x="-61.16" y="600.57" incLanes="-E31_0 -E31_1 -E27_0 -E27_1 E38_0 E38_1" intLanes=":J28_0_0 :J28_0_1 :J28_8_0 :J28_3_0 :J28_4_0 :J28_5_0 :J28_6_0 :J28_6_1" shape="-50.77,606.98 -50.76,594.18 -52.98,593.73 -53.76,593.18 -54.32,592.40 -54.65,591.40 -54.76,590.18 -67.56,590.18 -68.00,592.40 -68.56,593.18 -69.34,593.74 -70.34,594.07 -71.56,594.18 -71.54,606.98">
        <request index="0" response="00000000" foes="00010000" cont="0"/>
        <request index="1" response="00000000" foes="00010000" cont="0"/>
        <request index="2" response="11000000" foes="11010000" cont="1"/>
        <request index="3" response="11000000" foes="11000000" cont="0"/>
        <request index="4" response="11000111" foes="11000111" cont="0"/>
        <request index="5" response="00000000" foes="00000000" cont="0"/>
        <request index="6" response="00000000" foes="00011100" cont="0"/>
        <request index="7" response="00000000" foes="00011100" cont="0"/>
    </junction>
    <junction id="J29" type="priority" x="-61.16" y="379.83" incLanes="E27_0 E27_1 -E28_0 -E28_1 -E29_0 -E29_1 -E30_0 -E30_1" intLanes=":J29_0_0 :J29_1_0 :J29_1_1 :J29_16_0 :J29_4_0 :J29_5_0 :J29_5_1 :J29_7_0 :J29_8_0 :J29_9_0 :J29_9_1 :J29_17_0 :J29_12_0 :J29_13_0 :J29_13_1 :J29_15_0" shape="-67.56,390.26 -54.76,390.26 -54.32,388.03 -53.76,387.25 -52.98,386.70 -51.98,386.36 -50.76,386.26 -50.73,373.46 -52.97,373.01 -53.75,372.45 -54.31,371.67 -54.65,370.67 -54.76,369.45 -67.56,369.45 -68.01,371.68 -68.57,372.46 -69.36,373.02 -70.37,373.36 -71.61,373.47 -71.56,386.27 -69.34,386.71 -68.56,387.26 -68.00,388.04 -67.67,389.04">
        <request index="0"  response="0000000000000000" foes="0000000001100000" cont="0"/>
        <request index="1"  response="0000000000000000" foes="1111100011100000" cont="0"/>
        <request index="2"  response="0000000000000000" foes="1111100011100000" cont="0"/>
        <request index="3"  response="0000011000000000" foes="1110011011100000" cont="1"/>
        <request index="4"  response="0000011000000000" foes="0000011000000000" cont="0"/>
        <request index="5"  response="0000111000001111" foes="1000111000001111" cont="0"/>
        <request index="6"  response="0000111000001111" foes="1000111000001111" cont="0"/>
        <request index="7"  response="0110111000001110" foes="0110111000001110" cont="0"/>
        <request index="8"  response="0000000000000000" foes="0110000000000000" cont="0"/>
        <request index="9"  response="0000000000000000" foes="1110000011111000" cont="0"/>
        <request index="10" response="0000000000000000" foes="1110000011111000" cont="0"/>
        <request index="11" response="0000000000000110" foes="1110000011100110" cont="1"/>
        <request index="12" response="0000000000000110" foes="0000000000000110" cont="0"/>
        <request index="13" response="0000111100001110" foes="0000111110001110" cont="0"/>
        <request index="14" response="0000111100001110" foes="0000111110001110" cont="0"/>
        <request index="15" response="0000111001101110" foes="0000111001101110" cont="0"/>
    </junction>
    <junction id="J30" type="priority" x="262.66" y="380.63" incLanes="-E33_0 -E33_1 E28_0 E28_1 E32_0 E32_1" intLanes=":J30_0_0 :J30_0_1 :J30_8_0 :J30_3_0 :J30_4_0 :J30_5_0 :J30_6_0 :J30_6_1" shape="269.19,370.38 256.39,370.21 255.90,372.44 255.32,373.21 254.50,373.77 253.46,374.10 252.19,374.20 252.16,387.00 254.38,387.45 255.15,388.01 255.69,388.79 256.01,389.79 256.10,391.01 268.90,391.21">
        <request index="0" response="00000000" foes="00010000" cont="0"/>
        <request index="1" response="00000000" foes="00010000" cont="0"/>
        <request index="2" response="11000000" foes="11010000" cont="1"/>
        <request index="3" response="11000000" foes="11000000" cont="0"/>
        <request index="4" response="11000111" foes="11000111" cont="0"/>
        <request index="5" response="00000000" foes="00000000" cont="0"/>
        <request index="6" response="00000000" foes="00011100" cont="0"/>
        <request index="7" response="00000000" foes="00011100" cont="0"/>
    </junction>
    <junction id="J31" type="priority" x="-61.16" y="159.09" incLanes="E29_0 E29_1 E34_0 E34_1 -E35_0 -E35_1" intLanes=":J31_0_0 :J31_1_0 :J31_2_0 :J31_3_0 :J31_3_1 :J31_5_0 :J31_5_1 :J31_8_0" shape="-67.56,169.52 -54.76,169.52 -54.32,167.23 -53.76,166.42 -52.98,165.84 -51.98,165.49 -50.76,165.36 -50.92,152.56 -71.63,152.74 -71.56,165.54 -69.34,165.98 -68.56,166.53 -68.00,167.30 -67.67,168.30">
        <request index="0" response="00011000" foes="00011000" cont="0"/>
        <request index="1" response="11111000" foes="11111000" cont="0"/>
        <request index="2" response="00000000" foes="00000000" cont="0"/>
        <request index="3" response="00000000" foes="10000011" cont="0"/>
        <request index="4" response="00000000" foes="10000011" cont="0"/>
        <request index="5" response="00000000" foes="00000010" cont="0"/>
        <request index="6" response="00000000" foes="00000010" cont="0"/>
        <request index="7" response="00011000" foes="00011010" cont="1"/>
    </junction>
    <junction id="J32" type="priority" x="-364.36" y="381.10" incLanes="E30_0 E30_1 E36_0 E36_1 -E37_0 -E37_1" intLanes=":J32_0_0 :J32_1_0 :J32_2_0 :J32_3_0 :J32_3_1 :J32_5_0 :J32_5_1 :J32_8_0" shape="-353.89,387.46 -353.94,374.66 -356.16,374.22 -356.94,373.67 -357.49,372.89 -357.82,371.89 -357.93,370.67 -370.73,370.64 -370.76,391.47 -357.96,391.47 -357.51,389.25 -356.94,388.47 -356.15,387.91 -355.13,387.57">
        <request index="0" response="00011000" foes="00011000" cont="0"/>
        <request index="1" response="11111000" foes="11111000" cont="0"/>
        <request index="2" response="00000000" foes="00000000" cont="0"/>
        <request index="3" response="00000000" foes="10000011" cont="0"/>
        <request index="4" response="00000000" foes="10000011" cont="0"/>
        <request index="5" response="00000000" foes="00000010" cont="0"/>
        <request index="6" response="00000000" foes="00000010" cont="0"/>
        <request index="7" response="00011000" foes="00011010" cont="1"/>
    </junction>
    <junction id="J33" type="priority" x="259.31" y="600.82" incLanes="-E32_0 -E32_1 E31_0 E31_1" intLanes=":J33_0_0 :J33_0_1 :J33_2_0 :J33_2_1" shape="265.81,594.61 253.01,594.42 253.00,607.22 256.86,606.87 260.03,605.82 262.51,604.07 264.30,601.62 265.40,598.46">
        <request index="0" response="0000" foes="0000" cont="0"/>
        <request index="1" response="0000" foes="0000" cont="0"/>
        <request index="2" response="0000" foes="0000" cont="0"/>
        <request index="3" response="0000" foes="0000" cont="0"/>
    </junction>
    <junction id="J34" type="priority" x="265.55" y="154.92" incLanes="-E34_0 -E34_1 E33_0 E33_1" intLanes=":J34_0_0 :J34_0_1 :J34_2_0 :J34_2_1" shape="258.90,148.60 259.07,161.40 271.87,161.57 271.55,157.56 270.50,154.29 268.71,151.76 266.18,149.97 262.91,148.92">
        <request index="0" response="0000" foes="0000" cont="0"/>
        <request index="1" response="0000" foes="0000" cont="0"/>
        <request index="2" response="0000" foes="0000" cont="0"/>
        <request index="3" response="0000" foes="0000" cont="0"/>
    </junction>
    <junction id="J35" type="priority" x="-363.73" y="160.63" incLanes="E35_0 E35_1 -E36_0 -E36_1" intLanes=":J35_0_0 :J35_0_1 :J35_2_0 :J35_2_1" shape="-357.35,167.00 -357.41,154.20 -361.29,154.57 -364.47,155.64 -366.95,157.42 -368.72,159.90 -369.78,163.08 -370.15,166.96">
        <request index="0" response="0000" foes="0000" cont="0"/>
        <request index="1" response="0000" foes="0000" cont="0"/>
        <request index="2" response="0000" foes="0000" cont="0"/>
        <request index="3" response="0000" foes="0000" cont="0"/>
    </junction>
    <junction id="J36" type="priority" x="-364.42" y="600.94" incLanes="-E38_0 -E38_1 E37_0 E37_1" intLanes=":J36_0_0 :J36_0_1 :J36_2_0 :J36_2_1" shape="-358.00,607.33 -358.02,594.53 -370.82,594.53 -370.46,598.45 -369.40,601.65 -367.62,604.14 -365.12,605.92 -361.92,606.98">
        <request index="0" response="0000" foes="0000" cont="0"/>
        <request index="1" response="0000" foes="0000" cont="0"/>
        <request index="2" response="0000" foes="0000" cont="0"/>
        <request index="3" response="0000" foes="0000" cont="0"/>
    </junction>

    <junction id=":J28_8_0" type="internal" x="-55.70" y="601.47" incLanes=":J28_2_0 E38_0 E38_1" intLanes=":J28_4_0 :J28_6_0 :J28_6_1"/>
    <junction id=":J29_16_0" type="internal" x="-62.05" y="385.29" incLanes=":J29_3_0 -E29_0 -E29_1" intLanes=":J29_5_0 :J29_5_1 :J29_7_0 :J29_8_0 :J29_9_0 :J29_9_1 :J29_13_0 :J29_13_1 :J29_15_0"/>
    <junction id=":J29_17_0" type="internal" x="-60.27" y="374.39" incLanes=":J29_11_0 E27_0 E27_1" intLanes=":J29_0_0 :J29_1_0 :J29_1_1 :J29_5_0 :J29_5_1 :J29_7_0 :J29_13_0 :J29_13_1 :J29_15_0"/>
    <junction id=":J30_8_0" type="internal" x="263.61" y="375.26" incLanes=":J30_2_0 E32_0 E32_1" intLanes=":J30_4_0 :J30_6_0 :J30_6_1"/>
    <junction id=":J31_8_0" type="internal" x="-66.76" y="158.21" incLanes=":J31_7_0 E34_0 E34_1" intLanes=":J31_1_0 :J31_3_0 :J31_3_1"/>
    <junction id=":J32_8_0" type="internal" x="-365.25" y="386.49" incLanes=":J32_7_0 E36_0 E36_1" intLanes=":J32_1_0 :J32_3_0 :J32_3_1"/>

    <connection from="-E27" to="E31" fromLane="0" toLane="0" via=":J28_3_0" dir="r" state="m"/>
    <connection from="-E27" to="-E38" fromLane="1" toLane="1" via=":J28_4_0" dir="l" state="m"/>
    <connection from="-E28" to="-E27" fromLane="0" toLane="0" via=":J29_4_0" dir="r" state="m"/>
    <connection from="-E28" to="E30" fromLane="0" toLane="0" via=":J29_5_0" dir="s" state="m"/>
    <connection from="-E28" to="E30" fromLane="1" toLane="1" via=":J29_5_1" dir="s" state="m"/>
    <connection from="-E28" to="E29" fromLane="1" toLane="1" via=":J29_7_0" dir="l" state="m"/>
    <connection from="-E29" to="E28" fromLane="0" toLane="0" via=":J29_8_0" dir="r" state="M"/>
    <connection from="-E29" to="-E27" fromLane="0" toLane="0" via=":J29_9_0" dir="s" state="M"/>
    <connection from="-E29" to="-E27" fromLane="1" toLane="1" via=":J29_9_1" dir="s" state="M"/>
    <connection from="-E29" to="E30" fromLane="1" toLane="1" via=":J29_11_0" dir="l" state="m"/>
    <connection from="-E30" to="E29" fromLane="0" toLane="0" via=":J29_12_0" dir="r" state="m"/>