<?xml version="1.0" encoding="UTF-8"?>

<!-- generated on 2026-01-09T17:40:47.861888+01:00 by Eclipse SUMO netedit 1.25.0
-->

<routes xmlns:xsi="http://www.w3.org/2001/XMLSchema-instance" xsi:noNamespaceSchemaLocation="http://sumo.dlr.de/xsd/routes_file.xsd">
    <!-- Routes -->
    <route id="r_0" edges="E38 E31 E32 E33 E34 E35 E36 E37 E38 E31 E32 E33 E34 -E29 -E27 E31 E32 E33"/>
    <route id="r_1" edges="-E27 E31 E32 E33 E34 -E29 E30 -E36 -E35"/>
    <route id="r_2" edges="-E37 -E30 -E27 -E38 -E37 -E30 -E27 E31 E32 E33 E34 -E29 E28 E33 E34"/>
    <!-- Vehicles, persons and containers (sorted by depart) -->
    <vehicle id="v_0" depart="0.00" route="r_0"/>
    <vehicle id="v_1" depart="0.00" route="r_1"/>
    <vehicle id="v_2" depart="0.00" route="r_2"/>
</routes>
