<?xml version="1.0" encoding="UTF-8"?>

<!-- generated on 2026-01-19T16:02:24.290382+01:00 by Eclipse SUMO netedit 1.25.0
-->

<routes xmlns:xsi="http://www.w3.org/2001/XMLSchema-instance" xsi:noNamespaceSchemaLocation="http://sumo.dlr.de/xsd/routes_file.xsd">
    <!-- Routes -->
    <route id="r_0" edges="-E5 -E4 -E9 -E8 E7"/>
    <route id="r_1" edges="-E7 -E1 -E0 -E5"/>
    <route id="r_2" edges="-E3 -E0 -E5 -E4 -E9"/>
    <route id="r_3" edges="-E2 E1 E8 E9 E4"/>
    <route id="r_4" edges="E6 -E7 -E1 E3 E4 E5"/>
    <route id="r_5" edges="-E6 E0 E1 E8 E9"/>
    <route id="r_6" edges="-E7 -E1 -E0 -E5 -E4"/>
    <!-- Vehicles, persons and containers (sorted by depart) -->
    <vehicle id="v_0" depart="0.00" route="r_6"/>
    <vehicle id="v_1" depart="0.00" route="r_6"/>
    <vehicle id="v_10" depart="0.00" route="r_2"/>
    <vehicle id="v_11" depart="0.00" route="r_4"/>
    <vehicle id="v_12" depart="0.00" route="r_4"/>
    <vehicle id="v_13" depart="0.00" route="r_3"/>
    <vehicle id="v_14" depart="0.00" route="r_0"/>
    <vehicle id="v_15" depart="0.00" route="r_0"/>
    <vehicle id="v_16" depart="0.00" route="r_4"/>
    <vehicle id="v_17" depart="0.00" route="r_4"/>
    <vehicle id="v_18" depart="0.00" route="r_4"/>
    <vehicle id="v_19" depart="0.00" route="r_4"/>
    <vehicle id="v_2" depart="0.00" route="r_2"/>
    <vehicle id="v_20" depart="0.00" route="r_4"/>
    <vehicle id="v_21" depart="0.00" route="r_4"/>
    <vehicle id="v_22" depart="0.00" route="r_4"/>
    <vehicle id="v_23" depart="0.00" route="r_4"/>
    <vehicle id="v_24" depart="0.00" route="r_4"/>
    <vehicle id="v_3" depart="0.00" route="r_0"/>
    <vehicle id="v_4" depart="0.00" route="r_0"/>
    <vehicle id="v_5" depart="0.00" route="r_4"/>
    <vehicle id="v_6" depart="0.00" route="r_4"/>
    <vehicle id="v_7" depart="0.00" route="r_5"/>
    <vehicle id="v_8" depart="0.00" route="r_5"/>
    <vehicle id="v_9" depart="0.00" route="r_2"/>
</routes>
