<?xml version="1.0" encoding="UTF-8"?>

<!-- generated on 2026-01-19T15:58:14.967032+01:00 by Eclipse SUMO netedit 1.25.0
<neteditConfiguration xmlns:xsi="http://www.w3.org/2001/XMLSchema-instance" xsi:noNamespaceSchemaLocation="http://sumo.dlr.de/xsd/neteditConfiguration.xsd">

    <input>
        <sumo-net-file value="/home/cavallinux/Backup/Magistrale/ICT4SmartMobility/Exercises/Ex4/myNet.net.xml"/>
    </input>

    <output>
        <output-file value="/home/cavallinux/Backup/Magistrale/ICT4SmartMobility/Exercises/Ex4/myNet.net.xml"/>
    </output>

    <processing>
        <offset.disable-normalization value="true"/>
    </processing>

    <junctions>
        <no-turnarounds value="true"/>
    </junctions>

    <netedit>
        <new-network value="false"/>
    </netedit>

</neteditConfiguration>
-->

<net version="1.20" junctionCornerDetail="5" limitTurnSpeed="5.50" xmlns:xsi="http://www.w3.org/2001/XMLSchema-instance" xsi:noNamespaceSchemaLocation="http://sumo.dlr.de/xsd/net_file.xsd">

    <location netOffset="0.00,0.00" convBoundary="-74.15,-61.90,77.68,45.07" origBoundary="10000000000.00,10000000000.00,-10000000000.00,-10000000000.00" projParameter="!"/>

    <edge id=":J0_0" function="internal">
        <lane id=":J0_0_0" index="0" speed="13.89" length="24.31" shape="3.51,38.37 -1.10,40.80 -7.57,43.43 -14.19,45.54 -19.28,46.42"/>
    </edge>
    <edge id=":J0_1" function="internal">
        <lane id=":J0_1_0" index="0" speed="8.13" length="21.36" shape="3.51,38.37 -2.63,41.54 -7.00,41.63 -9.62,38.64 -10.47,32.59"/>
    </edge>
    <edge id=":J0_2" function="internal">
        <lane id=":J0_2_0" index="0" speed="5.60" length="9.33" shape="-4.07,32.61 -3.72,35.43 -2.63,36.89 -0.82,36.98 1.73,35.71"/>
    </edge>
    <edge id=":J0_3" function="internal">
        <lane id=":J0_3_0" index="0" speed="9.61" length="20.81" shape="-7.27,32.60 -8.04,38.62 -10.30,42.94 -14.04,45.53 -19.28,46.42"/>
    </edge>
    <edge id=":J0_4" function="internal">
        <lane id=":J0_4_0" index="0" speed="7.80" length="13.34" shape="-19.29,43.22 -16.85,42.54 -15.09,40.55 -14.04,37.22 -13.67,32.58"/>
    </edge>
    <edge id=":J0_5" function="internal">
        <lane id=":J0_5_0" index="0" speed="13.89" length="22.47" shape="-19.29,43.22 -14.48,42.43 -8.47,40.50 -2.61,38.06 1.73,35.71"/>
    </edge>
    <edge id=":J1_0" function="internal">
        <lane id=":J1_0_0" index="0" speed="6.51" length="9.06" shape="1.68,-12.23 -0.78,-11.90 -2.54,-10.86 -3.60,-9.11 -3.96,-6.66"/>
    </edge>
    <edge id=":J1_1" function="internal">
        <lane id=":J1_1_0" index="0" speed="13.89" length="20.84" shape="1.68,-12.23 -19.15,-12.28"/>
    </edge>
    <edge id=":J1_2" function="internal">
        <lane id=":J1_2_0" index="0" speed="8.65" length="16.91" shape="1.68,-12.23 -3.58,-12.83 -7.31,-14.52 -9.52,-17.32 -10.20,-21.21"/>
    </edge>
    <edge id=":J1_3" function="internal">
        <lane id=":J1_3_0" index="0" speed="6.48" length="9.03" shape="-3.81,-21.09 -3.50,-18.63 -2.48,-16.87 -0.74,-15.80 1.71,-15.43"/>
    </edge>
    <edge id=":J1_4" function="internal">
        <lane id=":J1_4_0" index="0" speed="13.89" length="14.46" shape="-3.81,-21.09 -3.96,-6.66"/>
        <lane id=":J1_4_1" index="1" speed="13.89" length="14.46" shape="-7.01,-21.15 -7.16,-6.67"/>
    </edge>
    <edge id=":J1_6" function="internal">
        <lane id=":J1_6_0" index="0" speed="8.77" length="3.64" shape="-7.01,-21.15 -7.76,-17.59"/>
    </edge>
    <edge id=":J1_14" function="internal">
        <lane id=":J1_14_0" index="0" speed="8.77" length="13.32" shape="-7.76,-17.59 -7.83,-17.28 -10.12,-14.52 -13.90,-12.85 -19.15,-12.28"/>
    </edge>
    <edge id=":J1_7" function="internal">
        <lane id=":J1_7_0" index="0" speed="6.63" length="9.27" shape="-19.16,-15.48 -16.68,-15.85 -14.90,-16.94 -13.80,-18.74 -13.40,-21.27"/>
    </edge>
    <edge id=":J1_8" function="internal">
        <lane id=":J1_8_0" index="0" speed="13.89" length="20.87" shape="-19.16,-15.48 1.71,-15.43"/>
    </edge>
    <edge id=":J1_9" function="internal">
        <lane id=":J1_9_0" index="0" speed="8.66" length="16.88" shape="-19.16,-15.48 -13.90,-14.94 -10.15,-13.29 -7.90,-10.54 -7.16,-6.67"/>
    </edge>
    <edge id=":J1_10" function="internal">
        <lane id=":J1_10_0" index="0" speed="6.49" length="9.03" shape="-13.56,-6.69 -13.90,-9.14 -14.95,-10.89 -16.70,-11.94 -19.15,-12.28"/>
    </edge>
    <edge id=":J1_11" function="internal">
        <lane id=":J1_11_0" index="0" speed="13.89" length="14.56" shape="-13.56,-6.69 -13.40,-21.27"/>
        <lane id=":J1_11_1" index="1" speed="13.89" length="14.56" shape="-10.36,-6.68 -10.20,-21.21"/>
    </edge>
    <edge id=":J1_13" function="internal">
        <lane id=":J1_13_0" index="0" speed="8.67" length="3.77" shape="-10.36,-6.68 -9.63,-10.37"/>
    </edge>
    <edge id=":J1_15" function="internal">
        <lane id=":J1_15_0" index="0" speed="8.67" length="13.14" shape="-9.63,-10.37 -9.60,-10.54 -7.33,-13.29 -3.56,-14.92 1.71,-15.43"/>
    </edge>
    <edge id=":J2_0" function="internal">
        <lane id=":J2_0_0" index="0" speed="5.70" length="9.21" shape="2.68,-54.07 0.13,-55.10 -1.71,-54.88 -2.84,-53.41 -3.26,-50.69"/>
    </edge>
    <edge id=":J2_1" function="internal">
        <lane id=":J2_1_0" index="0" speed="13.89" length="22.01" shape="2.68,-54.07 -1.73,-56.08 -7.57,-58.08 -13.54,-59.62 -18.32,-60.22"/>
    </edge>
    <edge id=":J2_2" function="internal">
        <lane id=":J2_2_0" index="0" speed="13.89" length="23.66" shape="-18.35,-63.42 -13.32,-62.75 -6.80,-61.08 -0.40,-58.93 4.27,-56.85"/>
    </edge>
    <edge id=":J2_3" function="internal">
        <lane id=":J2_3_0" index="0" speed="9.30" length="19.93" shape="-18.35,-63.42 -13.06,-62.66 -9.31,-60.30 -7.11,-56.33 -6.46,-50.75"/>
    </edge>
    <edge id=":J2_4" function="internal">
        <lane id=":J2_4_0" index="0" speed="7.39" length="12.19" shape="-12.86,-50.87 -13.13,-54.97 -14.14,-57.90 -15.87,-59.65 -18.32,-60.22"/>
    </edge>
    <edge id=":J2_5" function="internal">
        <lane id=":J2_5_0" index="0" speed="8.15" length="20.37" shape="-9.66,-50.81 -8.69,-56.36 -6.05,-59.23 -1.73,-59.39 4.27,-56.85"/>
    </edge>
    <edge id=":J3_0" function="internal">
        <lane id=":J3_0_0" index="0" speed="9.06" length="25.01" shape="64.31,-22.72 70.61,-18.05 73.09,-13.36 71.77,-8.66 66.62,-3.94"/>
    </edge>
    <edge id=":J3_1" function="internal">
        <lane id=":J3_1_0" index="0" speed="6.33" length="3.45" shape="64.31,-22.72 66.62,-20.16"/>
    </edge>
    <edge id=":J3_6" function="internal">
        <lane id=":J3_6_0" index="0" speed="6.33" length="11.95" shape="66.62,-20.16 67.04,-19.70 67.25,-16.08 65.26,-13.05 61.38,-11.80"/>
    </edge>
    <edge id=":J3_2" function="internal">
        <lane id=":J3_2_0" index="0" speed="5.54" length="11.34" shape="61.41,-15.00 65.29,-15.28 66.81,-16.20 65.96,-17.75 62.73,-19.94"/>
    </edge>
    <edge id=":J3_3" function="internal">
        <lane id=":J3_3_0" index="0" speed="6.64" length="16.48" shape="61.41,-15.00 65.88,-13.78 68.68,-10.87 69.14,-7.26 66.62,-3.94"/>
    </edge>
    <edge id=":J3_4" function="internal">
        <lane id=":J3_4_0" index="0" speed="5.72" length="11.77" shape="64.84,-6.60 67.49,-8.84 67.79,-10.46 65.76,-11.44 61.38,-11.80"/>
    </edge>
    <edge id=":J3_5" function="internal">
        <lane id=":J3_5_0" index="0" speed="7.72" length="17.81" shape="64.84,-6.60 68.38,-9.90 69.21,-13.22 67.33,-16.57 62.73,-19.94"/>
    </edge>
    <edge id=":J4_0" function="internal">
        <lane id=":J4_0_0" index="0" speed="6.54" length="9.07" shape="-66.49,-12.14 -68.96,-11.78 -70.72,-10.73 -71.79,-8.99 -72.16,-6.54"/>
    </edge>
    <edge id=":J4_1" function="internal">
        <lane id=":J4_1_0" index="0" speed="7.99" length="14.21" shape="-66.49,-12.14 -70.35,-12.68 -73.10,-14.33 -74.75,-17.08 -75.30,-20.94"/>
    </edge>
    <edge id=":J4_2" function="internal">
        <lane id=":J4_2_0" index="0" speed="6.50" length="9.03" shape="-72.10,-20.93 -71.75,-18.48 -70.70,-16.73 -68.95,-15.68 -66.50,-15.34"/>
    </edge>
    <edge id=":J4_3" function="internal">
        <lane id=":J4_3_0" index="0" speed="13.89" length="14.39" shape="-72.10,-20.93 -72.16,-6.54"/>
    </edge>
    <edge id=":J4_4" function="internal">
        <lane id=":J4_4_0" index="0" speed="13.89" length="14.37" shape="-75.36,-6.57 -75.30,-20.94"/>
    </edge>
    <edge id=":J4_5" function="internal">
        <lane id=":J4_5_0" index="0" speed="8.03" length="4.03" shape="-75.36,-6.57 -74.79,-10.40 -74.70,-10.53"/>
    </edge>
    <edge id=":J4_6" function="internal">
        <lane id=":J4_6_0" index="0" speed="8.03" length="10.16" shape="-74.70,-10.53 -73.11,-13.13 -70.35,-14.78 -66.50,-15.34"/>
    </edge>
    <edge id=":J5_0" function="internal">
        <lane id=":J5_0_0" index="0" speed="6.08" length="7.81" shape="-70.90,46.66 -73.03,46.36 -74.54,45.46 -75.44,43.94 -75.73,41.82"/>
    </edge>
    <edge id=":J5_1" function="internal">
        <lane id=":J5_1_0" index="0" speed="3.90" length="2.60" shape="-72.53,41.84 -72.43,42.55 -72.13,43.06 -71.63,43.36 -70.92,43.46"/>
    </edge>
    <edge id=":J6_0" function="internal">
        <lane id=":J6_0_0" index="0" speed="3.90" length="2.56" shape="-70.45,-59.80 -71.14,-59.69 -71.64,-59.39 -71.94,-58.89 -72.04,-58.20"/>
    </edge>
    <edge id=":J6_1" function="internal">
        <lane id=":J6_1_0" index="0" speed="6.08" length="7.69" shape="-75.24,-58.20 -74.93,-60.29 -74.04,-61.78 -72.55,-62.68 -70.47,-63.00"/>
    </edge>

    <edge id="-E0" from="J1" to="J0" priority="-1">
        <lane id="-E0_0" index="0" speed="13.89" length="39.27" shape="-3.96,-6.66 -4.07,32.61"/>
        <lane id="-E0_1" index="1" speed="13.89" length="39.27" shape="-7.16,-6.67 -7.27,32.60"/>
    </edge>
    <edge id="-E1" from="J2" to="J1" priority="-1">
        <lane id="-E1_0" index="0" speed="13.89" length="29.60" shape="-3.26,-50.69 -3.81,-21.09"/>
        <lane id="-E1_1" index="1" speed="13.89" length="29.60" shape="-6.46,-50.75 -7.01,-21.15"/>
    </edge>
    <edge id="-E2" from="J3" to="J1" priority="-1">
        <lane id="-E2_0" index="0" speed="13.89" length="59.70" shape="61.38,-11.80 1.68,-12.23"/>
    </edge>
    <edge id="-E3" from="J4" to="J1" priority="-1">
        <lane id="-E3_0" index="0" speed="13.89" length="47.34" shape="-66.50,-15.34 -19.16,-15.48"/>
    </edge>
    <edge id="-E4" from="J5" to="J4" priority="-1">
        <lane id="-E4_0" index="0" speed="13.89" length="48.39" shape="-75.73,41.82 -75.36,-6.57"/>
    </edge>
    <edge id="-E5" from="J0" to="J5" priority="-1">
        <lane id="-E5_0" index="0" speed="13.89" length="51.63" shape="-19.28,46.42 -70.90,46.66"/>
    </edge>
    <edge id="-E6" from="J3" to="J0" priority="-1">
        <lane id="-E6_0" index="0" speed="13.89" length="75.99" shape="66.62,-3.94 3.51,38.37"/>
    </edge>
    <edge id="-E7" from="J3" to="J2" priority="-1">
        <lane id="-E7_0" index="0" speed="13.89" length="69.07" shape="62.73,-19.94 2.68,-54.07"/>
    </edge>
    <edge id="-E8" from="J6" to="J2" priority="-1">
        <lane id="-E8_0" index="0" speed="13.89" length="52.13" shape="-70.47,-63.00 -18.35,-63.42"/>
    </edge>
    <edge id="-E9" from="J4" to="J6" priority="-1">
        <lane id="-E9_0" index="0" speed="13.89" length="37.27" shape="-75.30,-20.94 -75.24,-58.20"/>
    </edge>
    <edge id="E0" from="J0" to="J1" priority="-1">
        <lane id="E0_0" index="0" speed="13.89" length="39.27" shape="-13.67,32.58 -13.56,-6.69"/>
        <lane id="E0_1" index="1" speed="13.89" length="39.27" shape="-10.47,32.59 -10.36,-6.68"/>
    </edge>
    <edge id="E1" from="J1" to="J2" priority="-1">
        <lane id="E1_0" index="0" speed="13.89" length="29.60" shape="-13.40,-21.27 -12.86,-50.87"/>
        <lane id="E1_1" index="1" speed="13.89" length="29.60" shape="-10.20,-21.21 -9.66,-50.81"/>
    </edge>
    <edge id="E2" from="J1" to="J3" priority="-1">
        <lane id="E2_0" index="0" speed="13.89" length="59.70" shape="1.71,-15.43 61.41,-15.00"/>
    </edge>
    <edge id="E3" from="J1" to="J4" priority="-1">
        <lane id="E3_0" index="0" speed="13.89" length="47.34" shape="-19.15,-12.28 -66.49,-12.14"/>
    </edge>
    <edge id="E4" from="J4" to="J5" priority="-1">
        <lane id="E4_0" index="0" speed="13.89" length="48.39" shape="-72.16,-6.54 -72.53,41.84"/>
    </edge>
    <edge id="E5" from="J5" to="J0" priority="-1">
        <lane id="E5_0" index="0" speed="13.89" length="51.63" shape="-70.92,43.46 -19.29,43.22"/>
    </edge>
    <edge id="E6" from="J0" to="J3" priority="-1">
        <lane id="E6_0" index="0" speed="13.89" length="75.99" shape="1.73,35.71 64.84,-6.60"/>
    </edge>
    <edge id="E7" from="J2" to="J3" priority="-1">
        <lane id="E7_0" index="0" speed="13.89" length="69.07" shape="4.27,-56.85 64.31,-22.72"/>
    </edge>
    <edge id="E8" from="J2" to="J6" priority="-1">
        <lane id="E8_0" index="0" speed="13.89" length="52.13" shape="-18.32,-60.22 -70.45,-59.80"/>
    </edge>
    <edge id="E9" from="J6" to="J4" priority="-1">
        <lane id="E9_0" index="0" speed="13.89" length="37.27" shape="-72.04,-58.20 -72.10,-20.93"/>
    </edge>

    <junction id="J0" type="priority" x="-8.91" y="44.77" incLanes="-E6_0 -E0_0 -E0_1 E5_0" intLanes=":J0_0_0 :J0_1_0 :J0_2_0 :J0_3_0 :J0_4_0 :J0_5_0" shape="4.40,39.70 0.84,34.38 -1.01,35.18 -1.65,35.05 -2.11,34.59 -2.39,33.77 -2.47,32.61 -15.27,32.57 -15.39,35.33 -15.73,37.59 -16.29,39.35 -17.08,40.60 -18.08,41.36 -19.30,41.62 -19.27,48.02 -13.89,47.87 -9.87,47.39 -6.64,46.46 -3.58,44.95 -0.10,42.74">
        <request index="0" response="001000" foes="001000" cont="0"/>
        <request index="1" response="101000" foes="101000" cont="0"/>
        <request index="2" response="000000" foes="100000" cont="0"/>
        <request index="3" response="000000" foes="100011" cont="0"/>
        <request index="4" response="000000" foes="000000" cont="0"/>
        <request index="5" response="001100" foes="001110" cont="0"/>
    </junction>
    <junction id="J1" type="priority" x="-8.74" y="-13.91" incLanes="-E2_0 -E1_0 -E1_1 -E3_0 E0_0 E0_1" intLanes=":J1_0_0 :J1_1_0 :J1_2_0 :J1_3_0 :J1_4_0 :J1_4_1 :J1_14_0 :J1_7_0 :J1_8_0 :J1_9_0 :J1_10_0 :J1_11_0 :J1_11_1 :J1_15_0" shape="1.67,-10.63 1.72,-17.03 -0.49,-17.49 -1.26,-18.06 -1.80,-18.84 -2.12,-19.84 -2.21,-21.06 -15.00,-21.30 -15.50,-18.96 -16.08,-18.14 -16.89,-17.55 -17.92,-17.20 -19.17,-17.08 -19.15,-10.68 -16.93,-10.24 -16.15,-9.69 -15.60,-8.91 -15.27,-7.91 -15.16,-6.69 -2.36,-6.65 -1.91,-8.88 -1.35,-9.65 -0.56,-10.20 0.44,-10.53">
        <request index="0"  response="00000000110000" foes="00000000110000" cont="0"/>
        <request index="1"  response="11110001110000" foes="11111001110000" cont="0"/>
        <request index="2"  response="11100101110000" foes="11100101110000" cont="0"/>
        <request index="3"  response="00000000000000" foes="10000100000000" cont="0"/>
        <request index="4"  response="00000000000000" foes="10001100000111" cont="0"/>
        <request index="5"  response="00000000000000" foes="10001100000111" cont="0"/>
        <request index="6"  response="01110000000000" foes="01111100000110" cont="1"/>
        <request index="7"  response="01100000000000" foes="01100000000000" cont="0"/>
        <request index="8"  response="11100001111000" foes="11100001111100" cont="0"/>
        <request index="9"  response="11100001110010" foes="11100001110010" cont="0"/>
        <request index="10" response="00000000000000" foes="00000001000010" cont="0"/>
        <request index="11" response="00000000000000" foes="00001111000110" cont="0"/>
        <request index="12" response="00000000000000" foes="00001111000110" cont="0"/>
        <request index="13" response="00000000111000" foes="00001100111110" cont="1"/>
    </junction>
    <junction id="J2" type="priority" x="-7.85" y="-61.90" incLanes="-E7_0 -E8_0 E1_0 E1_1" intLanes=":J2_0_0 :J2_1_0 :J2_2_0 :J2_3_0 :J2_4_0 :J2_5_0" shape="1.89,-52.68 5.06,-58.24 0.49,-60.84 -3.02,-62.70 -6.06,-63.93 -9.23,-64.64 -13.13,-64.97 -18.36,-65.02 -18.31,-58.62 -16.11,-57.77 -15.35,-56.70 -14.82,-55.20 -14.52,-53.26 -14.46,-50.89 -1.66,-50.66 -1.23,-52.66 -0.73,-53.16 -0.05,-53.33 0.83,-53.17">
        <request index="0" response="000000" foes="000000" cont="0"/>
        <request index="1" response="110000" foes="111000" cont="0"/>
        <request index="2" response="100000" foes="100000" cont="0"/>
        <request index="3" response="100010" foes="100010" cont="0"/>
        <request index="4" response="000000" foes="000010" cont="0"/>
        <request index="5" response="000000" foes="001110" cont="0"/>
    </junction>
    <junction id="J3" type="priority" x="77.68" y="-13.28" incLanes="E7_0 E2_0 E6_0" intLanes=":J3_0_0 :J3_6_0 :J3_2_0 :J3_3_0 :J3_4_0 :J3_5_0" shape="65.10,-24.11 61.94,-18.55 61.42,-16.60 61.37,-10.20 64.28,-9.93 64.97,-9.61 65.14,-9.17 64.80,-8.61 63.95,-7.93 67.51,-2.61 71.96,-6.24 74.47,-9.84 75.03,-13.43 73.66,-17.01 70.35,-20.57">
        <request index="0" response="000000" foes="001000" cont="0"/>
        <request index="1" response="110000" foes="111000" cont="1"/>
        <request index="2" response="100000" foes="100000" cont="0"/>
        <request index="3" response="100011" foes="100011" cont="0"/>
        <request index="4" response="000000" foes="000010" cont="0"/>
        <request index="5" response="000000" foes="001110" cont="0"/>
    </junction>
    <junction id="J4" type="priority" x="-73.71" y="-13.72" incLanes="E3_0 E9_0 -E4_0" intLanes=":J4_0_0 :J4_1_0 :J4_2_0 :J4_3_0 :J4_4_0 :J4_6_0" shape="-66.49,-10.54 -66.50,-16.94 -68.73,-17.38 -69.50,-17.93 -70.06,-18.71 -70.39,-19.71 -70.50,-20.93 -76.90,-20.94 -76.96,-6.58 -70.56,-6.53 -70.10,-8.75 -69.53,-9.53 -68.74,-10.09 -67.72,-10.43">
        <request index="0" response="001000" foes="001000" cont="0"/>
        <request index="1" response="111000" foes="111000" cont="0"/>
        <request index="2" response="000000" foes="100000" cont="0"/>
        <request index="3" response="000000" foes="100011" cont="0"/>
        <request index="4" response="000000" foes="000010" cont="0"/>
        <request index="5" response="001100" foes="001110" cont="1"/>
    </junction>
    <junction id="J5" type="priority" x="-74.15" y="45.07" incLanes="-E5_0 E4_0" intLanes=":J5_0_0 :J5_1_0" shape="-70.90,48.26 -70.93,41.86 -77.33,41.81 -76.63,45.40 -75.74,46.66 -74.49,47.55 -72.87,48.08">
        <request index="0" response="00" foes="00" cont="0"/>
        <request index="1" response="00" foes="00" cont="0"/>
    </junction>
    <junction id="J6" type="priority" x="-73.63" y="-61.37" incLanes="E8_0 -E9_0" intLanes=":J6_0_0 :J6_1_0" shape="-70.44,-58.20 -70.49,-64.60 -74.01,-63.86 -75.24,-62.97 -76.13,-61.73 -76.66,-60.14 -76.84,-58.21">
        <request index="0" response="00" foes="00" cont="0"/>
        <request index="1" response="00" foes="00" cont="0"/>
    </junction>

    <junction id=":J1_14_0" type="internal" x="-7.76" y="-17.59" incLanes=":J1_6_0 E0_0 E0_1" intLanes=":J1_1_0 :J1_2_0 :J1_8_0 :J1_9_0 :J1_10_0 :J1_11_0 :J1_11_1"/>
    <junction id=":J1_15_0" type="internal" x="-9.63" y="-10.37" incLanes=":J1_13_0 -E1_0 -E1_1" intLanes=":J1_1_0 :J1_2_0 :J1_3_0 :J1_4_0 :J1_4_1 :J1_8_0 :J1_9_0"/>
    <junction id=":J3_6_0" type="internal" x="66.62" y="-20.16" incLanes=":J3_1_0 E6_0" intLanes=":J3_3_0 :J3_4_0 :J3_5_0"/>
    <junction id=":J4_6_0" type="internal" x="-74.70" y="-10.53" incLanes=":J4_5_0 E9_0" intLanes=":J4_1_0 :J4_2_0 :J4_3_0"/>

    <connection from="-E0" to="E6" fromLane="0" toLane="0" via=":J0_2_0" dir="r" state="M"/>
    <connection from="-E0" to="-E5" fromLane="1" toLane="0" via=":J0_3_0" dir="l" state="M"/>
    <connection from="-E1" to="E2" fromLane="0" toLane="0" via=":J1_3_0" dir="r" state="M"/>
    <connection from="-E1" to="-E0" fromLane="0" toLane="0" via=":J1_4_0" dir="s" state="M"/>
    <connection from="-E1" to="-E0" fromLane="1" toLane="1" via=":J1_4_1" dir="s" state="M"/>
    <connection from="-E1" to="E3" fromLane="1" toLane="0" via=":J1_6_0" dir="l" state="m"/>
    <connection from="-E2" to="-E0" fromLane="0" toLane="0" via=":J1_0_0" dir="r" state="m"/>
    <connection from="-E2" to="E3" fromLane="0" toLane="0" via=":J1_1_0" dir="s" state="m"/>
    <connection from="-E2" to="E1" fromLane="0" toLane="1" via=":J1_2_0" dir="l" state="m"/>
    <connection from="-E3" to="E1" fromLane="0" toLane="0" via=":J1_7_0" dir="r" state="m"/>
    <connection from="-E3" to="E2" fromLane="0" toLane="0" via=":J1_8_0" dir="s" state="m"/>
    <connection from="-E3" to="-E0" fromLane="0" toLane="1" via=":J1_9_0" dir="l" state="m"/>
    <connection from="-E4" to="-E9" fromLane="0" toLane="0" via=":J4_4_0" dir="s" state="M"/>
    <connection from="-E4" to="-E3" fromLane="0" toLane="0" via=":J4_5_0" dir="l" state="m"/>
    <connection from="-E5" to="-E4" fromLane="0" toLane="0" via=":J5_0_0" dir="l" state="M"/>
    <connection from="-E6" to="-E5" fromLane="0" toLane="0" via=":J0_0_0" dir="s" state="m"/>
    <connection from="-E6" to="E0" fromLane="0" toLane="1" via=":J0_1_0" dir="l" state="m"/>
    <connection from="-E7" to="-E1" fromLane="0" toLane="0" via=":J2_0_0" dir="r" state="M"/>
    <connection from="-E7" to="E8" fromLane="0" toLane="0" via=":J2_1_0" dir="s" state="m"/>
    <connection from="-E8" to="E7" fromLane="0" toLane="0" via=":J2_2_0" dir="s" state="m"/>
    <connection from="-E8" to="-E1" fromLane="0" toLane="1" via=":J2_3_0" dir="l" state="m"/>
    <connection from="-E9" to="-E8" fromLane="0" toLane="0" via=":J6_1_0" dir="l" state="M"/>
    <connection from="E0" to="E3" fromLane="0" toLane="0" via=":J1_10_0" dir="r" state="M"/>
    <connection from="E0" to="E1" fromLane="0" toLane="0" via=":J1_11_0" dir="s" state="M"/>
    <connection from="E0" to="E1" fromLane="1" toLane="1" via=":J1_11_1" dir="s" state="M"/>
    <connection from="E0" to="E2" fromLane="1" toLane="0" via=":J1_13_0" dir="l" state="m"/>
    <connection from="E1" to="E8" fromLane="0" toLane="0" via=":J2_4_0" dir="r" state="M"/>
    <connection from="E1" to="E7" fromLane="1" toLane="0" via=":J2_5_0" dir="l" state="M"/>
    <connection from="E2" to="-E7" fromLane="0" toLane="0" via=":J3_2_0" dir="r" state="m"/>
    <connection from="E2" to="-E6" fromLane="0" toLane="0" via=":J3_3_0" dir="l" state="m"/>
    <connection from="E3" to="E4" fromLane="0" toLane="0" via=":J4_0_0" dir="r" state="m"/>
    <connection from="E3" to="-E9" fromLane="0" toLane="0" via=":J4_1_0" dir="l" state="m"/>
    <connection from="E4" to="E5" fromLane="0" toLane="0" via=":J5_1_0" dir="r" state="M"/>
    <connection from="E5" to="E0" fromLane="0" toLane="0" via=":J0_4_0" dir="r" state="M"/>
    <connection from="E5" to="E6" fromLane="0" toLane="0" via=":J0_5_0" dir="s" state="m"/>
    <connection from="E6" to="-E2" fromLane="0" toLane="0" via=":J3_4_0" dir="r" state="M"/>
    <connection from="E6" to="-E7" fromLane="0" toLane="0" via=":J3_5_0" dir="r" state="M"/>
    <connection from="E7" to="-E6" fromLane="0" toLane="0" via=":J3_0_0" dir="l" state="M"/>
    <connection from="E7" to="-E2" fromLane="0" toLane="0" via=":J3_1_0" dir="l" state="m"/>
    <connection from="E8" to="E9" fromLane="0" toLane="0" via=":J6_0_0" dir="r" state="M"/>
    <connection from="E9" to="-E3" fromLane="0" toLane="0" via=":J4_2_0" dir="r" state="M"/>
    <connection from="E9" to="E4" fromLane="0" toLane="0" via=":J4_3_0" dir="s" state="M"/>

    <connection from=":J0_0" to="-E5" fromLane="0" toLane="0" dir="s" state="M"/>
    <connection from=":J0_1" to="E0" fromLane="0" toLane="1" dir="l" state="M"/>
    <connection from=":J0_2" to="E6" fromLane="0" toLane="0" dir="r" state="M"/>
    <connection from=":J0_3" to="-E5" fromLane="0" toLane="0" dir="l" state="M"/>
    <connection from=":J0_4" to="E0" fromLane="0" toLane="0" dir="r" state="M"/>
    <connection from=":J0_5" to="E6" fromLane="0" toLane="0" dir="s" state="M"/>
    <connection from=":J1_0" to="-E0" fromLane="0" toLane="0" dir="r" state="M"/>
    <connection from=":J1_1" to="E3" fromLane="0" toLane="0" dir="s" state="M"/>
    <connection from=":J1_2" to="E1" fromLane="0" toLane="1" dir="l" state="M"/>
    <connection from=":J1_3" to="E2" fromLane="0" toLane="0" dir="r" state="M"/>
    <connection from=":J1_4" to="-E0" fromLane="0" toLane="0" dir="s" state="M"/>
    <connection from=":J1_4" to="-E0" fromLane="1" toLane="1" dir="s" state="M"/>
    <connection from=":J1_6" to="E3" fromLane="0" toLane="0" via=":J1_14_0" dir="l" state="m"/>
    <connection from=":J1_14" to="E3" fromLane="0" toLane="0" dir="l" state="M"/>
    <connection from=":J1_7" to="E1" fromLane="0" toLane="0" dir="r" state="M"/>
    <connection from=":J1_8" to="E2" fromLane="0" toLane="0" dir="s" state="M"/>
    <connection from=":J1_9" to="-E0" fromLane="0" toLane="1" dir="l" state="M"/>
    <connection from=":J1_10" to="E3" fromLane="0" toLane="0" dir="r" state="M"/>
    <connection from=":J1_11" to="E1" fromLane="0" toLane="0" dir="s" state="M"/>
    <connection from=":J1_11" to="E1" fromLane="1" toLane="1" dir="s" state="M"/>
    <connection from=":J1_13" to="E2" fromLane="0" toLane="0" via=":J1_15_0" dir="l" state="m"/>
    <connection from=":J1_15" to="E2" fromLane="0" toLane="0" dir="l" state="M"/>
    <connection from=":J2_0" to="-E1" fromLane="0" toLane="0" dir="r" state="M"/>
    <connection from=":J2_1" to="E8" fromLane="0" toLane="0" dir="s" state="M"/>
    <connection from=":J2_2" to="E7" fromLane="0" toLane="0" dir="s" state="M"/>
    <connection from=":J2_3" to="-E1" fromLane="0" toLane="1" dir="l" state="M"/>
    <connection from=":J2_4" to="E8" fromLane="0" toLane="0" dir="r" state="M"/>
    <connection from=":J2_5" to="E7" fromLane="0" toLane="0" dir="l" state="M"/>
    <connection from=":J3_0" to="-E6" fromLane="0" toLane="0" dir="l" state="M"/>
    <connection from=":J3_1" to="-E2" fromLane="0" toLane="0" via=":J3_6_0" dir="l" state="m"/>
    <connection from=":J3_6" to="-E2" fromLane="0" toLane="0" dir="l" state="M"/>
    <connection from=":J3_2" to="-E7" fromLane="0" toLane="0" dir="r" state="M"/>
    <connection from=":J3_3" to="-E6" fromLane="0" toLane="0" dir="l" state="M"/>
    <connection from=":J3_4" to="-E2" fromLane="0" toLane="0" dir="r" state="M"/>
    <connection from=":J3_5" to="-E7" fromLane="0" toLane="0" dir="r" state="M"/>
    <connection from=":J4_0" to="E4" fromLane="0" toLane="0" dir="r" state="M"/>
    <connection from=":J4_1" to="-E9" fromLane="0" toLane="0" dir="l" state="M"/>
    <connection from=":J4_2" to="-E3" fromLane="0" toLane="0" dir="r" state="M"/>
    <connection from=":J4_3" to="E4" fromLane="0" toLane="0" dir="s" state="M"/>
    <connection from=":J4_4" to="-E9" fromLane="0" toLane="0" dir="s" state="M"/>
    <connection from=":J4_5" to="-E3" fromLane="0" toLane="0" via=":J4_6_0" dir="l" state="m"/>
    <connection from=":J4_6" to="-E3" fromLane="0" toLane="0" dir="l" state="M"/>
    <connection from=":J5_0" to="-E4" fromLane="0" toLane="0" dir="l" state="M"/>
    <connection from=":J5_1" to="E5" fromLane="0" toLane="0" dir="r" state="M"/>
    <connection from=":J6_0" to="E9" fromLane="0" toLane="0" dir="r" state="M"/>
    <connection from=":J6_1" to="-E8" fromLane="0" toLane="0" dir="l" state="M"/>

</net>
